---- qbsp / ericw-tools 2.0.0-alpha8-29-gb2f23f76 ----

--- Options Summary ---
    "nocolor" was set to "1" (from command line)

Input file: C:\Users\anderson04\Downloads\quake-leveldesign-starterkit-20240930-windows\quake-leveldesign-starterkit-20240930-windows\tools\ironwail\id1\maps\Demon_Lords_Castle\Demon_Lords_Castle-compile.map
Output file: C:\Users\anderson04\Downloads\quake-leveldesign-starterkit-20240930-windows\quake-leveldesign-starterkit-20240930-windows\tools\ironwail\id1\maps\Demon_Lords_Castle\Demon_Lords_Castle.bsp

INFO: using built-in palette.
WARNING: Demon_Lords_Castle-compile.map[line 6]: Unrecognised string escape - \.
WARNING: Demon_Lords_Castle-compile.map[line 6]: Unrecognised string escape - \.
WARNING: Demon_Lords_Castle-compile.map[line 6]: Unrecognised string escape - \.
WARNING: Demon_Lords_Castle-compile.map[line 6]: Unrecognised string escape - \.
WARNING: Demon_Lords_Castle-compile.map[line 6]: Unrecognised string escape - \.
WARNING: Demon_Lords_Castle-compile.map[line 6]: Unrecognised string escape - \.
WARNING: Demon_Lords_Castle-compile.map[line 6]: Unrecognised string escape - \k
     12 entities
      7 unique textures
     61 texinfos
    106 unique planes

INFO: world extents calculated to 8072 units
     36 brushes
    216 sides

            1 texture frames added
WARNING: unable to find texture skip
Processing hull 0...
     1 WATER | Q2_UNUSED_8 brushes
    32 SOLID brushes
     2 SKY brushes
    35 brushes total
    210 visible sides
INFO: calculating BSP for 35 brushes with 210 sides
     35 brushes
    210 visible faces
    209 nodes
     84 expensive split nodes
    125 mid-split nodes
    210 leaves
      7 WATER | Q2_UNUSED_8 leafs
    121 EMPTY leafs
     72 SOLID leafs
     10 SKY leafs
    210 leafs total
    16 max tree height
    10 avg tree height
    918 tree portals
WARNING: Reached occupant "path_corner" at (1112 -1112 328), no filling performed.
Leak file written to Demon_Lords_Castle.pts
            3 portals written to Demon_Lords_Castle.leak.prt
    918 tree portals
    350 sides visible
      346 makefaces
       62 merged
    1,268 subdivided
    10 nodes pruned
      7 WATER | Q2_UNUSED_8 leafs
    121 EMPTY leafs
     62 SOLID leafs
     10 SKY leafs
    200 leafs total
    16 max tree height
    10 avg tree height
      498 edges added by tjunctions
    1,552 faces optimized through MWT
    3,602 triangles computed from MWT
       81 faces created via optimization of MWT triangles
    3,559 edges
    1,633 faces
Processing hull 1...
WARNING: Reached occupant "path_corner" at (1112 -120 -8), no filling performed.
Processing hull 2...
WARNING: Reached occupant "path_corner" at (1112 -120 -8), no filling performed.
WARNING: worldspawn at 0 0 0 has long value for key wad (length 203 >= 127)
Writing Demon_Lords_Castle.bsp as Quake BSP bsp29
Wrote Demon_Lords_Castle.bsp

count   lump name    byte size 
      2 models              128
    153 planes             3060
   1236 vertexes          14832
    205 nodes              4920
     52 texinfos           2080
   1639 faces             32780
   1239 clipnodes          9912
    146 leafs              4088
   1670 marksurfaces       3340
   3572 edges             14288
   6892 surfedges         27568
      8 textures         164876
        lightdata             0
        visdata               0
        entdata            1080

0.057s seconds elapsed


