---- qbsp / ericw-tools 2.0.0-alpha8-29-gb2f23f76 ----

--- Options Summary ---
    "nocolor" was set to "1" (from command line)

Input file: C:\Users\anderson04\Downloads\quake-leveldesign-starterkit-20240930-windows\quake-leveldesign-starterkit-20240930-windows\tools\ironwail\id1\maps\Demon_Lords_Castle\Demon_Lords_Castle-compile.map
Output file: C:\Users\anderson04\Downloads\quake-leveldesign-starterkit-20240930-windows\quake-leveldesign-starterkit-20240930-windows\tools\ironwail\id1\maps\Demon_Lords_Castle\Demon_Lords_Castle.bsp

INFO: using built-in palette.
WARNING: Demon_Lords_Castle-compile.map[line 6]: Unrecognised string escape - \.
WARNING: Demon_Lords_Castle-compile.map[line 6]: Unrecognised string escape - \.
WARNING: Demon_Lords_Castle-compile.map[line 6]: Unrecognised string escape - \.
WARNING: Demon_Lords_Castle-compile.map[line 6]: Unrecognised string escape - \.
WARNING: Demon_Lords_Castle-compile.map[line 6]: Unrecognised string escape - \.
WARNING: Demon_Lords_Castle-compile.map[line 6]: Unrecognised string escape - \.
WARNING: Demon_Lords_Castle-compile.map[line 6]: Unrecognised string escape - \k
     5 entities
     4 unique textures
    25 texinfos
    38 unique planes

INFO: world extents calculated to 8072 units
     4 brushes
    24 sides

            0 texture frames added
WARNING: unable to find texture skip
Processing hull 0...
    1 WATER | Q2_UNUSED_8 brushes
    2 SOLID brushes
    3 brushes total
    18 visible sides
INFO: calculating BSP for 3 brushes with 18 sides
     3 brushes
    18 visible faces
    17 nodes
    17 mid-split nodes
    18 leaves
     1 WATER | Q2_UNUSED_8 leafs
    14 EMPTY leafs
     3 SOLID leafs
    18 leafs total
    7 max tree height
    5 avg tree height
    94 tree portals
WARNING: Reached occupant "info_player_start" at (-16 -32 40), no filling performed.
Leak file written to Demon_Lords_Castle.pts
            3 portals written to Demon_Lords_Castle.leak.prt
    94 tree portals
    40 sides visible
       37 makefaces
        3 merged
    1,208 subdivided
     1 WATER | Q2_UNUSED_8 leafs
    14 EMPTY leafs
     3 SOLID leafs
    18 leafs total
    7 max tree height
    5 avg tree height
      384 edges added by tjunctions
    1,242 faces optimized through MWT
    2,868 triangles computed from MWT
       45 faces created via optimization of MWT triangles
    2,833 edges
    1,287 faces
Processing hull 1...
WARNING: Reached occupant "info_player_start" at (-16 -32 40), no filling performed.
Processing hull 2...
WARNING: Reached occupant "info_player_start" at (-16 -32 40), no filling performed.
Writing Demon_Lords_Castle.bsp as Quake BSP bsp29
Wrote Demon_Lords_Castle.bsp

count   lump name    byte size 
      2 models              128
     49 planes              980
    893 vertexes          10716
     23 nodes               552
     23 texinfos            920
   1293 faces             25860
     52 clipnodes           416
     23 leafs               644
   1297 marksurfaces       2594
   2846 edges             11384
   5466 surfedges         21864
      4 textures          49100
        lightdata             0
        visdata               0
        entdata             431

0.037s seconds elapsed


