---- qbsp / ericw-tools 2.0.0-alpha8-60-gd0788ac0 ----

--- Options Summary ---
    "nocolor" was set to "1" (from command line)

Input file: C:\Users\fatgu\Downloads\quake-leveldesign-starterkit-20241210-windows\working\quake\Demon_Lords_Castle\Demon_Lords_Castle-compile.map
Output file: C:\Users\fatgu\Downloads\quake-leveldesign-starterkit-20241210-windows\working\quake\Demon_Lords_Castle\Demon_Lords_Castle.bsp

INFO: using built-in palette.
WARNING: Demon_Lords_Castle-compile.map[line 4]: Unrecognised string escape - \.
WARNING: Demon_Lords_Castle-compile.map[line 4]: Unrecognised string escape - \.
WARNING: Demon_Lords_Castle-compile.map[line 4]: Unrecognised string escape - \e
WARNING: Demon_Lords_Castle-compile.map[line 4]: Unrecognised string escape - \q
WARNING: Demon_Lords_Castle-compile.map[line 4]: Unrecognised string escape - \p
WARNING: Demon_Lords_Castle-compile.map[line 4]: Unrecognised string escape - \p
WARNING: Demon_Lords_Castle-compile.map[line 4]: Unrecognised string escape - \.
WARNING: Demon_Lords_Castle-compile.map[line 4]: Unrecognised string escape - \.
WARNING: Demon_Lords_Castle-compile.map[line 4]: Unrecognised string escape - \.
WARNING: Demon_Lords_Castle-compile.map[line 4]: Unrecognised string escape - \k
WARNING: Demon_Lords_Castle-compile.map[line 4]: Unrecognised string escape - \.
WARNING: Demon_Lords_Castle-compile.map[line 4]: Unrecognised string escape - \.
WARNING: Demon_Lords_Castle-compile.map[line 4]: Unrecognised string escape - \.
WARNING: Demon_Lords_Castle-compile.map[line 4]: Unrecognised string escape - \s
WARNING: Demon_Lords_Castle-compile.map[line 4]: Unrecognised string escape - \.
WARNING: Demon_Lords_Castle-compile.map[line 4]: Unrecognised string escape - \.
WARNING: Demon_Lords_Castle-compile.map[line 4]: Unrecognised string escape - \.
WARNING: Demon_Lords_Castle-compile.map[line 4]: Unrecognised string escape - \d
WARNING: Demon_Lords_Castle-compile.map[line 4]: Unrecognised string escape - \D
WARNING: Demon_Lords_Castle-compile.map[line 4]: Unrecognised string escape - \.
WARNING: Demon_Lords_Castle-compile.map[line 4]: Unrecognised string escape - \.
WARNING: Demon_Lords_Castle-compile.map[line 4]: Unrecognised string escape - \.
WARNING: Demon_Lords_Castle-compile.map[line 4]: Unrecognised string escape - \m
WARNING: Demon_Lords_Castle-compile.map[line 4]: Unrecognised string escape - \M
WARNING: Demon_Lords_Castle-compile.map[line 4]: Unrecognised string escape - \.
WARNING: Demon_Lords_Castle-compile.map[line 4]: Unrecognised string escape - \.
WARNING: Demon_Lords_Castle-compile.map[line 4]: Unrecognised string escape - \.
WARNING: Demon_Lords_Castle-compile.map[line 4]: Unrecognised string escape - \a
WARNING: Demon_Lords_Castle-compile.map[line 4]: Unrecognised string escape - \a
WARNING: Demon_Lords_Castle-compile.map[line 4]: Unrecognised string escape - \.
WARNING: Demon_Lords_Castle-compile.map[line 4]: Unrecognised string escape - \.
WARNING: Demon_Lords_Castle-compile.map[line 4]: Unrecognised string escape - \.
WARNING: Demon_Lords_Castle-compile.map[line 4]: Unrecognised string escape - \u
WARNING: Demon_Lords_Castle-compile.map[line 4]: Unrecognised string escape - \u
WARNING: Demon_Lords_Castle-compile.map[line 4]: Unrecognised string escape - \.
WARNING: Demon_Lords_Castle-compile.map[line 4]: Unrecognised string escape - \.
WARNING: Demon_Lords_Castle-compile.map[line 4]: Unrecognised string escape - \.
WARNING: Demon_Lords_Castle-compile.map[line 4]: Unrecognised string escape - \d
WARNING: Demon_Lords_Castle-compile.map[line 4]: Unrecognised string escape - \d
WARNING: Demon_Lords_Castle-compile.map[line 4]: Unrecognised string escape - \.
WARNING: Demon_Lords_Castle-compile.map[line 4]: Unrecognised string escape - \.
WARNING: Demon_Lords_Castle-compile.map[line 4]: Unrecognised string escape - \.
WARNING: Demon_Lords_Castle-compile.map[line 4]: Unrecognised string escape - \g
WARNING: Demon_Lords_Castle-compile.map[line 4]: Unrecognised string escape - \G
      626 entities
      118 unique textures
    2,541 texinfos
    1,850 unique planes

INFO: world extents calculated to 11584 units
      710 brushes
    4,260 sides
      199 side bevels

            0 texture frames added
Processing hull 0...
    594 SOLID brushes
      3 SKY brushes
    597 brushes total
    3,586 visible sides
INFO: calculating BSP for 597 brushes with 3586 sides
      597 brushes
    3,586 visible faces
    7,335 nodes
    5,699 expensive split nodes
    1,636 mid-split nodes
    7,336 leaves
    3,668 EMPTY leafs
    3,648 SOLID leafs
       20 SKY leafs
    7,336 leafs total
    26 max tree height
    16 avg tree height
    45 tiny portals
    31,175 tree portals
WARNING: Reached occupant "path_corner" at (1032 -1232 328), no filling performed.
Leak file written to Demon_Lords_Castle.pts
            3 portals written to Demon_Lords_Castle.leak.prt
    45 tiny portals
    31,175 tree portals
    10,169 sides visible
    10,169 makefaces
     1,646 merged
     9,210 subdivided
    530 nodes pruned
    3,668 EMPTY leafs
    3,118 SOLID leafs
       20 SKY leafs
    6,806 leafs total
    26 max tree height
    16 avg tree height
    10,513 edges added by tjunctions
    17,655 faces optimized through MWT
    45,852 triangles computed from MWT
     2,511 faces created via optimization of MWT triangles
    43,439 edges
    20,244 faces
Processing hull 1...
WARNING: Reached occupant "light" at (3636 -320 -24), no filling performed.
Processing hull 2...
WARNING: Reached occupant "light" at (2592 -304 -72), no filling performed.
WARNING: worldspawn at 0 0 0 has long value for key wad (length 330 >= 127)
Writing Demon_Lords_Castle.bsp as Quake BSP bsp29
Wrote Demon_Lords_Castle.bsp

count   lump name    byte size 
     31 models             1984
   1982 planes            39640
  22683 vertexes         272196
   7025 nodes            168600
   1521 texinfos          60840
  20575 faces            411500
  58099 clipnodes        464792
   3939 leafs            110292
  22188 marksurfaces      44376
  44143 edges            176572
  87808 surfedges        351232
    118 textures        2905972
        lightdata             0
        visdata               0
        entdata           44747

1.153s seconds elapsed


