---- qbsp / ericw-tools 2.0.0-alpha8-26-ged62ec10 ----

--- Options Summary ---
    "nocolor" was set to "1" (from command line)

Input file: C:\Users\fatgu\Desktop\quake-leveldesign-starterkit-20240916-windows\tools\ironwail\id1\maps\Demon_Lords_Castle\Demon_Lords_Castle-compile.map
Output file: C:\Users\fatgu\Desktop\quake-leveldesign-starterkit-20240916-windows\tools\ironwail\id1\maps\Demon_Lords_Castle\Demon_Lords_Castle.bsp

INFO: using built-in palette.
WARNING: No wad or _wad key exists in the worldmodel
     2 entities
     2 unique textures
     4 texinfos
    12 unique planes

INFO: world extents calculated to 328 units
    1 brushes
    6 sides

            0 texture frames added
WARNING: unable to find texture skip
WARNING: unable to find texture __TB_empty
Processing hull 0...
    1 SOLID brushes
    1 brushes total
    6 visible sides
INFO: calculating BSP for 1 brushes with 6 sides
    1 brushes
    6 non-visible faces
    6 nodes
    6 non-visible nodes
    6 expensive split nodes
    7 leaves
    6 EMPTY leafs
    1 SOLID leafs
    7 leafs total
    7 max tree height
    4 avg tree height
    36 tree portals
WARNING: Reached occupant "info_player_start" at (-16 -32 40), no filling performed.
Leak file written to Demon_Lords_Castle.pts
            1 portals written to Demon_Lords_Castle.leak.prt
    36 tree portals
    6 sides visible
    6 makefaces
    6 EMPTY leafs
    1 SOLID leafs
    7 leafs total
    7 max tree height
    4 avg tree height
Processing hull 1...
WARNING: Reached occupant "info_player_start" at (-16 -32 40), no filling performed.
Processing hull 2...
WARNING: Reached occupant "info_player_start" at (-16 -32 40), no filling performed.
Writing Demon_Lords_Castle.bsp as Quake BSP bsp29
Wrote Demon_Lords_Castle.bsp

count   lump name    byte size 
      1 models               64
     17 planes              340
      1 vertexes             12
      6 nodes               144
      0 texinfos              0
      0 faces                 0
     12 clipnodes            96
      7 leafs               196
      0 marksurfaces          0
      1 edges                 4
      0 surfedges             0
      2 textures             12
        lightdata             0
        visdata               0
        entdata             116

0.010s seconds elapsed


