---- qbsp / ericw-tools 2.0.0-alpha8-29-gb2f23f76 ----

--- Options Summary ---
    "nocolor" was set to "1" (from command line)

Input file: C:\Users\anderson04\Downloads\quake-leveldesign-starterkit-20240930-windows\quake-leveldesign-starterkit-20240930-windows\tools\ironwail\id1\maps\Demon_Lords_Castle\Demon_Lords_Castle-compile.map
Output file: C:\Users\anderson04\Downloads\quake-leveldesign-starterkit-20240930-windows\quake-leveldesign-starterkit-20240930-windows\tools\ironwail\id1\maps\Demon_Lords_Castle\Demon_Lords_Castle.bsp

INFO: using built-in palette.
WARNING: Demon_Lords_Castle-compile.map[line 6]: Unrecognised string escape - \.
WARNING: Demon_Lords_Castle-compile.map[line 6]: Unrecognised string escape - \.
WARNING: Demon_Lords_Castle-compile.map[line 6]: Unrecognised string escape - \.
WARNING: Demon_Lords_Castle-compile.map[line 6]: Unrecognised string escape - \.
WARNING: Demon_Lords_Castle-compile.map[line 6]: Unrecognised string escape - \.
WARNING: Demon_Lords_Castle-compile.map[line 6]: Unrecognised string escape - \.
WARNING: Demon_Lords_Castle-compile.map[line 6]: Unrecognised string escape - \k
     5 entities
     2 unique textures
    13 texinfos
    22 unique planes

INFO: world extents calculated to 1448 units
     2 brushes
    12 sides

            0 texture frames added
WARNING: unable to find texture skip
Processing hull 0...
    1 SOLID brushes
    1 brushes total
    6 visible sides
INFO: calculating BSP for 1 brushes with 6 sides
    1 brushes
    6 visible faces
    6 nodes
    6 expensive split nodes
    7 leaves
    6 EMPTY leafs
    1 SOLID leafs
    7 leafs total
    7 max tree height
    4 avg tree height
    36 tree portals
WARNING: Reached occupant "info_player_start" at (-16 0 40), no filling performed.
Leak file written to Demon_Lords_Castle.pts
            0 portals written to Demon_Lords_Castle.leak.prt
    36 tree portals
    6 sides visible
    6 makefaces
    6 EMPTY leafs
    1 SOLID leafs
    7 leafs total
    7 max tree height
    4 avg tree height
     6 faces optimized through MWT
    12 triangles computed from MWT
    12 edges
     6 faces
Processing hull 1...
WARNING: Reached occupant "info_player_start" at (-16 0 40), no filling performed.
Processing hull 2...
WARNING: Reached occupant "info_player_start" at (-16 0 40), no filling performed.
Writing Demon_Lords_Castle.bsp as Quake BSP bsp29
Wrote Demon_Lords_Castle.bsp

count   lump name    byte size 
      2 models              128
     30 planes              600
     16 vertexes            192
     12 nodes               288
     12 texinfos            480
     12 faces               240
     24 clipnodes           192
     14 leafs               392
     12 marksurfaces         24
     25 edges               100
     48 surfedges           192
      2 textures          21812
        lightdata             0
        visdata               0
        entdata             428

0.011s seconds elapsed


